Steltek-20090509-bjl/mfc/a0250 HE HAD OBSERVED THE BUSINESS LIFE OF HAWAII AND DEVELOPED A VAULTING AMBITION
Steltek-20090509-bjl/mfc/a0251 I MAY MANAGE TO FREIGHT A CARGO BACK AS WELL
Steltek-20090509-bjl/mfc/a0252 O'BRIEN HAD BEEN A CLEAN LIVING YOUNG MAN WITH IDEALS
Steltek-20090509-bjl/mfc/a0253 HE IT WAS THAT LIVED TO FOUND THE FAMILY OF THE PATINO
Steltek-20090509-bjl/mfc/a0254 STRAIGHT OUT THEY SWAM THEIR HEADS GROWING SMALLER AND SMALLER
Steltek-20090509-bjl/mfc/a0255 YOU WON'T DIE OF MALNUTRITION BE SURE OF THAT
Steltek-20090509-bjl/mfc/a0256 SEE THE LENGTH OF THE BODY AND THAT ELONGATED NECK
Steltek-20090509-bjl/mfc/a0257 THEY ARE COMING ASHORE WHOEVER THEY ARE
Steltek-20090509-bjl/mfc/a0258 SOAKED IN SEAWATER THEY OFFSET THE HEAT RAYS
Steltek-20090509-bjl/mfc/a0259 THINK OF INVESTING IN SUCH AN ADVENTURE
