glenton-20090924-mad/mfc/a0249 ALL EYES HOWEVER WERE STARING AT HIM IN CERTITUDE OF EXPECTANCY
glenton-20090924-mad/mfc/a0250 HE HAD OBSERVED THE BUSINESS LIFE OF HAWAII AND DEVELOPED A VAULTING AMBITION
glenton-20090924-mad/mfc/a0251 I MAY MANAGE TO FREIGHT A CARGO BACK AS WELL
glenton-20090924-mad/mfc/a0252 O'BRIEN HAD BEEN A CLEAN LIVING YOUNG MAN WITH IDEALS
glenton-20090924-mad/mfc/a0253 HE IT WAS THAT LIVED TO FOUND THE FAMILY OF THE PATINO
glenton-20090924-mad/mfc/a0254 STRAIGHT OUT THEY SWAM THEIR HEADS GROWING SMALLER AND SMALLER
glenton-20090924-mad/mfc/a0255 YOU WON'T DIE OF MALNUTRITION BE SURE OF THAT
glenton-20090924-mad/mfc/a0256 SEE THE LENGTH OF THE BODY AND THAT ELONGATED NECK
glenton-20090924-mad/mfc/a0257 THEY ARE COMING ASHORE WHOEVER THEY ARE
glenton-20090924-mad/mfc/a0258 SOAKED IN SEAWATER THEY OFFSET THE HEAT RAYS
