soulphox-20100126-zpp/mfc/a0251 I MAY MANAGE TO FREIGHT A CARGO BACK AS WELL
soulphox-20100126-zpp/mfc/a0252 O'BRIEN HAD BEEN A CLEAN LIVING YOUNG MAN WITH IDEALS
soulphox-20100126-zpp/mfc/a0253 HE IT WAS THAT LIVED TO FOUND THE FAMILY OF THE PATINO
soulphox-20100126-zpp/mfc/a0254 STRAIGHT OUT THEY SWAM THEIR HEADS GROWING SMALLER AND SMALLER
soulphox-20100126-zpp/mfc/a0255 YOU WON'T DIE OF MALNUTRITION BE SURE OF THAT
soulphox-20100126-zpp/mfc/a0256 SEE THE LENGTH OF THE BODY AND THAT ELONGATED NECK
soulphox-20100126-zpp/mfc/a0257 THEY ARE COMING ASHORE WHOEVER THEY ARE
soulphox-20100126-zpp/mfc/a0258 SOAKED IN SEAWATER THEY OFFSET THE HEAT RAYS
soulphox-20100126-zpp/mfc/a0259 THINK OF INVESTING IN SUCH AN ADVENTURE
soulphox-20100126-zpp/mfc/a0260 NOBODY KNEW HIS HISTORY THEY OF THE JUNTA LEAST OF ALL
